packages/bdgd2opendss/bdgd2opendss-1.0.0.tar.gz/bdgd2opendss-1.0.0/tests/dss_models_output/sub__SE001/18_SE001_1/ChavesMT_202312598_18_SE001_1_------1-----.dss
New "Line.CMT_2CF_1698" phases=3 bus1="786471.1.2.3" bus2="2CF1698.1.2.3" r1=0.001 r0=0.001 x1=0.0 x0=0.0 c1=0.0 c0=0.0  switch = T length=0.00100
New "Line.CMT_17CS_1752" phases=3 bus1="785121.1.2.3" bus2="17CS1752.1.2.3" r1=0.001 r0=0.001 x1=0.0 x0=0.0 c1=0.0 c0=0.0  switch = T length=0.00100
New "Line.CMT_23FR_36" phases=1 bus1="361191.2" bus2="23FR36.2" r1=0.001 r0=0.001 x1=0.0 x0=0.0 c1=0.0 c0=0.0  switch = T length=0.00100
New "Line.CMT_17RL_5213" phases=3 bus1="789531.1.2.3" bus2="17RL5213.1.2.3" r1=0.001 r0=0.001 x1=0.0 x0=0.0 c1=0.0 c0=0.0  switch = T length=0.00100
New "Line.CMT_17RL_1738" phases=3 bus1="785782.1.2.3" bus2="17RL1738.1.2.3" r1=0.001 r0=0.001 x1=0.0 x0=0.0 c1=0.0 c0=0.0  switch = T length=0.00100
New "Line.CMT_23FR_138" phases=1 bus1="360691.2" bus2="23FR138.2" r1=0.001 r0=0.001 x1=0.0 x0=0.0 c1=0.0 c0=0.0  switch = T length=0.00100
New "Line.CMT_18CF_106" phases=3 bus1="365871.1.2.3" bus2="18CF106.1.2.3" r1=0.001 r0=0.001 x1=0.0 x0=0.0 c1=0.0 c0=0.0  switch = T length=0.00100
New "Line.CMT_17CS_1770" phases=3 bus1="790101.1.2.3" bus2="17CS1770.1.2.3" r1=0.001 r0=0.001 x1=0.0 x0=0.0 c1=0.0 c0=0.0  switch = T length=0.00100
New "Line.CMT_5CF_743" phases=1 bus1="583831.2" bus2="5CF743.2" r1=0.001 r0=0.001 x1=0.0 x0=0.0 c1=0.0 c0=0.0  switch = T length=0.00100
New "Line.CMT_18CS_1074" phases=3 bus1="656942.1.2.3" bus2="18CS1074.1.2.3" r1=0.001 r0=0.001 x1=0.0 x0=0.0 c1=0.0 c0=0.0  switch = T length=0.00100
New "Line.CMT_18FR_342" phases=3 bus1="342551.1.2.3" bus2="18FR342.1.2.3" r1=0.001 r0=0.001 x1=0.0 x0=0.0 c1=0.0 c0=0.0  switch = T length=0.00100
!New "Line.CMT_23CS_85" phases=3 bus1="796761.1.2.3" bus2="23CS85.1.2.3" r1=0.001 r0=0.001 x1=0.0 x0=0.0 c1=0.0 c0=0.0  switch = T length=0.00100
 !Chave MT em estado ABERTO!
New "Line.CMT_23FR_45" phases=1 bus1="358851.1" bus2="23FR45.1" r1=0.001 r0=0.001 x1=0.0 x0=0.0 c1=0.0 c0=0.0  switch = T length=0.00100
New "Line.CMT_23CF_844" phases=3 bus1="783971.1.2.3" bus2="23CF844.1.2.3" r1=0.001 r0=0.001 x1=0.0 x0=0.0 c1=0.0 c0=0.0  switch = T length=0.00100
New "Line.CMT_5CS_1582" phases=3 bus1="757451.1.2.3" bus2="5CS1582.1.2.3" r1=0.001 r0=0.001 x1=0.0 x0=0.0 c1=0.0 c0=0.0  switch = T length=0.00100
New "Line.CMT_5CF_1778" phases=3 bus1="794721.1.2.3" bus2="5CF1778.1.2.3" r1=0.001 r0=0.001 x1=0.0 x0=0.0 c1=0.0 c0=0.0  switch = T length=0.00100
New "Line.CMT_2CF_1432" phases=3 bus1="794001.1.2.3" bus2="2CF1432.1.2.3" r1=0.001 r0=0.001 x1=0.0 x0=0.0 c1=0.0 c0=0.0  switch = T length=0.00100
New "Line.CMT_23CF_1492" phases=1 bus1="799801.2" bus2="23CF1492.2" r1=0.001 r0=0.001 x1=0.0 x0=0.0 c1=0.0 c0=0.0  switch = T length=0.00100
New "Line.CMT_2CF_1843" phases=3 bus1="799671.1.2.3" bus2="2CF1843.1.2.3" r1=0.001 r0=0.001 x1=0.0 x0=0.0 c1=0.0 c0=0.0  switch = T length=0.00100
New "Line.CMT_18CF_1890" phases=3 bus1="799511.1.2.3" bus2="18CF1890.1.2.3" r1=0.001 r0=0.001 x1=0.0 x0=0.0 c1=0.0 c0=0.0  switch = T length=0.00100
New "Line.CMT_18CF_1396" phases=3 bus1="797901.1.2.3" bus2="18CF1396.1.2.3" r1=0.001 r0=0.001 x1=0.0 x0=0.0 c1=0.0 c0=0.0  switch = T length=0.00100
New "Line.CMT_18CF_1867" phases=3 bus1="799081.1.2.3" bus2="18CF1867.1.2.3" r1=0.001 r0=0.001 x1=0.0 x0=0.0 c1=0.0 c0=0.0  switch = T length=0.00100
New "Line.CMT_18FR_75" phases=3 bus1="540391.1.2.3" bus2="18FR75.1.2.3" r1=0.001 r0=0.001 x1=0.0 x0=0.0 c1=0.0 c0=0.0  switch = T length=0.00100
New "Line.CMT_17CS_621" phases=3 bus1="801581.1.2.3" bus2="17CS621.1.2.3" r1=0.001 r0=0.001 x1=0.0 x0=0.0 c1=0.0 c0=0.0  switch = T length=0.00100
New "Line.CMT_23CF_423" phases=1 bus1="804301.1" bus2="23CF423.1" r1=0.001 r0=0.001 x1=0.0 x0=0.0 c1=0.0 c0=0.0  switch = T length=0.00100
New "Line.CMT_23CF_31" phases=3 bus1="267731.1.2.3" bus2="23CF31.1.2.3" r1=0.001 r0=0.001 x1=0.0 x0=0.0 c1=0.0 c0=0.0  switch = T length=0.00100
New "Line.CMT_23CF_47" phases=3 bus1="807311.1.2.3" bus2="23CF47.1.2.3" r1=0.001 r0=0.001 x1=0.0 x0=0.0 c1=0.0 c0=0.0  switch = T length=0.00100
New "Line.CMT_29FR_20" phases=3 bus1="377751.1.2.3" bus2="29FR20.1.2.3" r1=0.001 r0=0.001 x1=0.0 x0=0.0 c1=0.0 c0=0.0  switch = T length=0.00100
New "Line.CMT_15FR_1153" phases=1 bus1="297771.2" bus2="15FR1153.2" r1=0.001 r0=0.001 x1=0.0 x0=0.0 c1=0.0 c0=0.0  switch = T length=0.00100
New "Line.CMT_18FR_71" phases=3 bus1="443921.1.2.3" bus2="18FR71.1.2.3" r1=0.001 r0=0.001 x1=0.0 x0=0.0 c1=0.0 c0=0.0  switch = T length=0.00100
New "Line.CMT_18CF_1927" phases=3 bus1="813811.1.2.3" bus2="18CF1927.1.2.3" r1=0.001 r0=0.001 x1=0.0 x0=0.0 c1=0.0 c0=0.0  switch = T length=0.00100
New "Line.CMT_18FR_74" phases=3 bus1="360681.1.2.3" bus2="18FR74.1.2.3" r1=0.001 r0=0.001 x1=0.0 x0=0.0 c1=0.0 c0=0.0  switch = T length=0.00100
New "Line.CMT_17CF_1304" phases=3 bus1="744091.1.2.3" bus2="17CF1304.1.2.3" r1=0.001 r0=0.001 x1=0.0 x0=0.0 c1=0.0 c0=0.0  switch = T length=0.00100
New "Line.CMT_15CF_1949" phases=3 bus1="816671.1.2.3" bus2="15CF1949.1.2.3" r1=0.001 r0=0.001 x1=0.0 x0=0.0 c1=0.0 c0=0.0  switch = T length=0.00100
New "Line.CMT_23FR_22" phases=3 bus1="182361.1.2.3" bus2="23FR22.1.2.3" r1=0.001 r0=0.001 x1=0.0 x0=0.0 c1=0.0 c0=0.0  switch = T length=0.00100
New "Line.CMT_18CF_1813" phases=3 bus1="815911.1.2.3" bus2="18CF1813.1.2.3" r1=0.001 r0=0.001 x1=0.0 x0=0.0 c1=0.0 c0=0.0  switch = T length=0.00100
New "Line.CMT_23CF_1802" phases=3 bus1="814901.1.2.3" bus2="23CF1802.1.2.3" r1=0.001 r0=0.001 x1=0.0 x0=0.0 c1=0.0 c0=0.0  switch = T length=0.00100
!New "Line.CMT_23CS_49" phases=3 bus1="175331.1.2.3" bus2="23CS49.1.2.3" r1=0.001 r0=0.001 x1=0.0 x0=0.0 c1=0.0 c0=0.0  switch = T length=0.00100
 !Chave MT em estado ABERTO!
New "Line.CMT_23CF_1661" phases=3 bus1="814401.1.2.3" bus2="23CF1661.1.2.3" r1=0.001 r0=0.001 x1=0.0 x0=0.0 c1=0.0 c0=0.0  switch = T length=0.00100
New "Line.CMT_29FR_1663" phases=1 bus1="822431.2" bus2="29FR1663.2" r1=0.001 r0=0.001 x1=0.0 x0=0.0 c1=0.0 c0=0.0  switch = T length=0.00100
New "Line.CMT_29CF_1958" phases=3 bus1="821741.1.2.3" bus2="29CF1958.1.2.3" r1=0.001 r0=0.001 x1=0.0 x0=0.0 c1=0.0 c0=0.0  switch = T length=0.00100
New "Line.CMT_29CF_169" phases=3 bus1="825541.1.2.3" bus2="29CF169.1.2.3" r1=0.001 r0=0.001 x1=0.0 x0=0.0 c1=0.0 c0=0.0  switch = T length=0.00100
New "Line.CMT_17CF_1268" phases=3 bus1="720871.1.2.3" bus2="17CF1268.1.2.3" r1=0.001 r0=0.001 x1=0.0 x0=0.0 c1=0.0 c0=0.0  switch = T length=0.00100
New "Line.CMT_18CF_72" phases=3 bus1="825321.1.2.3" bus2="18CF72.1.2.3" r1=0.001 r0=0.001 x1=0.0 x0=0.0 c1=0.0 c0=0.0  switch = T length=0.00100
New "Line.CMT_23RL_83" phases=3 bus1="703791.1.2.3" bus2="23RL83.1.2.3" r1=0.001 r0=0.001 x1=0.0 x0=0.0 c1=0.0 c0=0.0  switch = T length=0.00100
New "Line.CMT_15CF_1997" phases=1 bus1="823841.2" bus2="15CF1997.2" r1=0.001 r0=0.001 x1=0.0 x0=0.0 c1=0.0 c0=0.0  switch = T length=0.00100
New "Line.CMT_17CF_1690" phases=3 bus1="823561.1.2.3" bus2="17CF1690.1.2.3" r1=0.001 r0=0.001 x1=0.0 x0=0.0 c1=0.0 c0=0.0  switch = T length=0.00100
!New "Line.CMT_18CS_69" phases=3 bus1="142972.1.2.3" bus2="18CS69.1.2.3" r1=0.001 r0=0.001 x1=0.0 x0=0.0 c1=0.0 c0=0.0  switch = T length=0.00100
 !Chave MT em estado ABERTO!
New "Line.CMT_18FR_81" phases=1 bus1="254411.2" bus2="18FR81.2" r1=0.001 r0=0.001 x1=0.0 x0=0.0 c1=0.0 c0=0.0  switch = T length=0.00100
New "Line.CMT_15CF_1940" phases=3 bus1="820021.1.2.3" bus2="15CF1940.1.2.3" r1=0.001 r0=0.001 x1=0.0 x0=0.0 c1=0.0 c0=0.0  switch = T length=0.00100
New "Line.CMT_15CF_2014" phases=3 bus1="827971.1.2.3" bus2="15CF2014.1.2.3" r1=0.001 r0=0.001 x1=0.0 x0=0.0 c1=0.0 c0=0.0  switch = T length=0.00100
New "Line.CMT_15CF_1999" phases=1 bus1="828021.1" bus2="15CF1999.1" r1=0.001 r0=0.001 x1=0.0 x0=0.0 c1=0.0 c0=0.0  switch = T length=0.00100
New "Line.CMT_5CS_1990" phases=3 bus1="827961.1.2.3" bus2="5CS1990.1.2.3" r1=0.001 r0=0.001 x1=0.0 x0=0.0 c1=0.0 c0=0.0  switch = T length=0.00100
New "Line.CMT_29CF_14" phases=3 bus1="182251.1.2.3" bus2="29CF14.1.2.3" r1=0.001 r0=0.001 x1=0.0 x0=0.0 c1=0.0 c0=0.0  switch = T length=0.00100
New "Line.CMT_23CF_2019" phases=3 bus1="828841.1.2.3" bus2="23CF2019.1.2.3" r1=0.001 r0=0.001 x1=0.0 x0=0.0 c1=0.0 c0=0.0  switch = T length=0.00100
!New "Line.CMT_18CS_1072" phases=3 bus1="635141.1.2.3" bus2="18CS1072.1.2.3" r1=0.001 r0=0.001 x1=0.0 x0=0.0 c1=0.0 c0=0.0  switch = T length=0.00100
 !Chave MT em estado ABERTO!
!New "Line.CMT_18CS_1076" phases=3 bus1="260671.1.2.3" bus2="18CS1076.1.2.3" r1=0.001 r0=0.001 x1=0.0 x0=0.0 c1=0.0 c0=0.0  switch = T length=0.00100
 !Chave MT em estado ABERTO!
New "Line.CMT_5CF_700" phases=1 bus1="330721.3" bus2="5CF700.3" r1=0.001 r0=0.001 x1=0.0 x0=0.0 c1=0.0 c0=0.0  switch = T length=0.00100
New "Line.CMT_23CF_23" phases=3 bus1="350461.1.2.3" bus2="23CF23.1.2.3" r1=0.001 r0=0.001 x1=0.0 x0=0.0 c1=0.0 c0=0.0  switch = T length=0.00100
New "Line.CMT_18CF_104" phases=3 bus1="349271.1.2.3" bus2="18CF104.1.2.3" r1=0.001 r0=0.001 x1=0.0 x0=0.0 c1=0.0 c0=0.0  switch = T length=0.00100
!New "Line.CMT_23CF_422" phases=3 bus1="347751.1.2.3" bus2="23CF422.1.2.3" r1=0.001 r0=0.001 x1=0.0 x0=0.0 c1=0.0 c0=0.0  switch = T length=0.00100
 !Chave MT em estado ABERTO!
New "Line.CMT_29CF_939" phases=3 bus1="565561.1.2.3" bus2="29CF939.1.2.3" r1=0.001 r0=0.001 x1=0.0 x0=0.0 c1=0.0 c0=0.0  switch = T length=0.00100
New "Line.CMT_18CF_1020" phases=3 bus1="559561.1.2.3" bus2="18CF1020.1.2.3" r1=0.001 r0=0.001 x1=0.0 x0=0.0 c1=0.0 c0=0.0  switch = T length=0.00100
New "Line.CMT_18CF_1068" phases=1 bus1="226781.3" bus2="18CF1068.3" r1=0.001 r0=0.001 x1=0.0 x0=0.0 c1=0.0 c0=0.0  switch = T length=0.00100
New "Line.CMT_5FS_57" phases=1 bus1="187941.2" bus2="5FS57.2" r1=0.001 r0=0.001 x1=0.0 x0=0.0 c1=0.0 c0=0.0  switch = T length=0.00100
New "Line.CMT_18CF_42" phases=1 bus1="427201.3" bus2="18CF42.3" r1=0.001 r0=0.001 x1=0.0 x0=0.0 c1=0.0 c0=0.0  switch = T length=0.00100
New "Line.CMT_23CF_746" phases=3 bus1="423561.1.2.3" bus2="23CF746.1.2.3" r1=0.001 r0=0.001 x1=0.0 x0=0.0 c1=0.0 c0=0.0  switch = T length=0.00100
New "Line.CMT_18CF_175" phases=3 bus1="295671.1.2.3" bus2="18CF175.1.2.3" r1=0.001 r0=0.001 x1=0.0 x0=0.0 c1=0.0 c0=0.0  switch = T length=0.00100
New "Line.CMT_23CF_135" phases=3 bus1="295661.1.2.3" bus2="23CF135.1.2.3" r1=0.001 r0=0.001 x1=0.0 x0=0.0 c1=0.0 c0=0.0  switch = T length=0.00100
New "Line.CMT_23RL_655" phases=3 bus1="295411.1.2.3" bus2="23RL655.1.2.3" r1=0.001 r0=0.001 x1=0.0 x0=0.0 c1=0.0 c0=0.0  switch = T length=0.00100
New "Line.CMT_23CF_167" phases=1 bus1="295001.3" bus2="23CF167.3" r1=0.001 r0=0.001 x1=0.0 x0=0.0 c1=0.0 c0=0.0  switch = T length=0.00100
New "Line.CMT_18FR_78" phases=1 bus1="294991.3" bus2="18FR78.3" r1=0.001 r0=0.001 x1=0.0 x0=0.0 c1=0.0 c0=0.0  switch = T length=0.00100
New "Line.CMT_18CF_1037" phases=3 bus1="638371.1.2.3" bus2="18CF1037.1.2.3" r1=0.001 r0=0.001 x1=0.0 x0=0.0 c1=0.0 c0=0.0  switch = T length=0.00100
New "Line.CMT_23CS_1118" phases=3 bus1="760561.1.2.3" bus2="23CS1118.1.2.3" r1=0.001 r0=0.001 x1=0.0 x0=0.0 c1=0.0 c0=0.0  switch = T length=0.00100
New "Line.CMT_23CF_733" phases=1 bus1="366311.3" bus2="23CF733.3" r1=0.001 r0=0.001 x1=0.0 x0=0.0 c1=0.0 c0=0.0  switch = T length=0.00100
New "Line.CMT_23CF_734" phases=1 bus1="366301.2" bus2="23CF734.2" r1=0.001 r0=0.001 x1=0.0 x0=0.0 c1=0.0 c0=0.0  switch = T length=0.00100
New "Line.CMT_23CF_751" phases=3 bus1="364871.1.2.3" bus2="23CF751.1.2.3" r1=0.001 r0=0.001 x1=0.0 x0=0.0 c1=0.0 c0=0.0  switch = T length=0.00100
New "Line.CMT_29CF_963" phases=3 bus1="596241.1.2.3" bus2="29CF963.1.2.3" r1=0.001 r0=0.001 x1=0.0 x0=0.0 c1=0.0 c0=0.0  switch = T length=0.00100
New "Line.CMT_18CF_1005" phases=1 bus1="595711.2" bus2="18CF1005.2" r1=0.001 r0=0.001 x1=0.0 x0=0.0 c1=0.0 c0=0.0  switch = T length=0.00100
New "Line.CMT_18CF_1004" phases=1 bus1="595701.2" bus2="18CF1004.2" r1=0.001 r0=0.001 x1=0.0 x0=0.0 c1=0.0 c0=0.0  switch = T length=0.00100
New "Line.CMT_23CF_747" phases=1 bus1="649351.3" bus2="23CF747.3" r1=0.001 r0=0.001 x1=0.0 x0=0.0 c1=0.0 c0=0.0  switch = T length=0.00100
New "Line.CMT_18CF_853" phases=3 bus1="477661.1.2.3" bus2="18CF853.1.2.3" r1=0.001 r0=0.001 x1=0.0 x0=0.0 c1=0.0 c0=0.0  switch = T length=0.00100
New "Line.CMT_18FS_110" phases=1 bus1="474781.3" bus2="18FS110.3" r1=0.001 r0=0.001 x1=0.0 x0=0.0 c1=0.0 c0=0.0  switch = T length=0.00100
New "Line.CMT_2CF_821" phases=3 bus1="474531.1.2.3" bus2="2CF821.1.2.3" r1=0.001 r0=0.001 x1=0.0 x0=0.0 c1=0.0 c0=0.0  switch = T length=0.00100
New "Line.CMT_23CF_115" phases=3 bus1="472971.1.2.3" bus2="23CF115.1.2.3" r1=0.001 r0=0.001 x1=0.0 x0=0.0 c1=0.0 c0=0.0  switch = T length=0.00100
New "Line.CMT_17CF_1147" phases=3 bus1="244351.1.2.3" bus2="17CF1147.1.2.3" r1=0.001 r0=0.001 x1=0.0 x0=0.0 c1=0.0 c0=0.0  switch = T length=0.00100
New "Line.CMT_2CF_38" phases=3 bus1="367691.1.2.3" bus2="2CF38.1.2.3" r1=0.001 r0=0.001 x1=0.0 x0=0.0 c1=0.0 c0=0.0  switch = T length=0.00100
New "Line.CMT_23CF_705" phases=3 bus1="366331.1.2.3" bus2="23CF705.1.2.3" r1=0.001 r0=0.001 x1=0.0 x0=0.0 c1=0.0 c0=0.0  switch = T length=0.00100
New "Line.CMT_23CF_704" phases=3 bus1="366321.1.2.3" bus2="23CF704.1.2.3" r1=0.001 r0=0.001 x1=0.0 x0=0.0 c1=0.0 c0=0.0  switch = T length=0.00100
New "Line.CMT_23CF_1089" phases=1 bus1="659101.2" bus2="23CF1089.2" r1=0.001 r0=0.001 x1=0.0 x0=0.0 c1=0.0 c0=0.0  switch = T length=0.00100
New "Line.CMT_18CF_108" phases=3 bus1="658741.1.2.3" bus2="18CF108.1.2.3" r1=0.001 r0=0.001 x1=0.0 x0=0.0 c1=0.0 c0=0.0  switch = T length=0.00100
New "Line.CMT_18CS_852" phases=3 bus1="657391.1.2.3" bus2="18CS852.1.2.3" r1=0.001 r0=0.001 x1=0.0 x0=0.0 c1=0.0 c0=0.0  switch = T length=0.00100
New "Line.CMT_17CF_1139" phases=3 bus1="655441.1.2.3" bus2="17CF1139.1.2.3" r1=0.001 r0=0.001 x1=0.0 x0=0.0 c1=0.0 c0=0.0  switch = T length=0.00100
New "Line.CMT_17CF_1137" phases=1 bus1="655211.1" bus2="17CF1137.1" r1=0.001 r0=0.001 x1=0.0 x0=0.0 c1=0.0 c0=0.0  switch = T length=0.00100
New "Line.CMT_17CF_440" phases=1 bus1="239821.1" bus2="17CF440.1" r1=0.001 r0=0.001 x1=0.0 x0=0.0 c1=0.0 c0=0.0  switch = T length=0.00100
New "Line.CMT_18CF_73" phases=3 bus1="237451.1.2.3" bus2="18CF73.1.2.3" r1=0.001 r0=0.001 x1=0.0 x0=0.0 c1=0.0 c0=0.0  switch = T length=0.00100
New "Line.CMT_18FS_198" phases=1 bus1="237021.2" bus2="18FS198.2" r1=0.001 r0=0.001 x1=0.0 x0=0.0 c1=0.0 c0=0.0  switch = T length=0.00100
New "Line.CMT_29CS_754" phases=3 bus1="237011.1.2.3" bus2="29CS754.1.2.3" r1=0.001 r0=0.001 x1=0.0 x0=0.0 c1=0.0 c0=0.0  switch = T length=0.00100
New "Line.CMT_18CF_917" phases=1 bus1="253391.1" bus2="18CF917.1" r1=0.001 r0=0.001 x1=0.0 x0=0.0 c1=0.0 c0=0.0  switch = T length=0.00100
New "Line.CMT_17CF_188" phases=2 bus1="312291.3.1" bus2="17CF188.3.1" r1=0.001 r0=0.001 x1=0.0 x0=0.0 c1=0.0 c0=0.0  switch = T length=0.00100
New "Line.CMT_17CF_187" phases=3 bus1="312271.1.2.3" bus2="17CF187.1.2.3" r1=0.001 r0=0.001 x1=0.0 x0=0.0 c1=0.0 c0=0.0  switch = T length=0.00100
New "Line.CMT_17CF_603" phases=1 bus1="309481.3" bus2="17CF603.3" r1=0.001 r0=0.001 x1=0.0 x0=0.0 c1=0.0 c0=0.0  switch = T length=0.00100
New "Line.CMT_23CF_26" phases=1 bus1="183251.2" bus2="23CF26.2" r1=0.001 r0=0.001 x1=0.0 x0=0.0 c1=0.0 c0=0.0  switch = T length=0.00100
New "Line.CMT_23CF_27" phases=1 bus1="183241.2" bus2="23CF27.2" r1=0.001 r0=0.001 x1=0.0 x0=0.0 c1=0.0 c0=0.0  switch = T length=0.00100
New "Line.CMT_18CF_88" phases=3 bus1="183081.1.2.3" bus2="18CF88.1.2.3" r1=0.001 r0=0.001 x1=0.0 x0=0.0 c1=0.0 c0=0.0  switch = T length=0.00100
New "Line.CMT_18CF_176" phases=3 bus1="182991.1.2.3" bus2="18CF176.1.2.3" r1=0.001 r0=0.001 x1=0.0 x0=0.0 c1=0.0 c0=0.0  switch = T length=0.00100
New "Line.CMT_23CF_25" phases=3 bus1="182401.1.2.3" bus2="23CF25.1.2.3" r1=0.001 r0=0.001 x1=0.0 x0=0.0 c1=0.0 c0=0.0  switch = T length=0.00100
New "Line.CMT_29FR_15" phases=3 bus1="182391.1.2.3" bus2="29FR15.1.2.3" r1=0.001 r0=0.001 x1=0.0 x0=0.0 c1=0.0 c0=0.0  switch = T length=0.00100
New "Line.CMT_5CS_64" phases=3 bus1="182381.1.2.3" bus2="5CS64.1.2.3" r1=0.001 r0=0.001 x1=0.0 x0=0.0 c1=0.0 c0=0.0  switch = T length=0.00100
New "Line.CMT_23FR_21" phases=3 bus1="182351.1.2.3" bus2="23FR21.1.2.3" r1=0.001 r0=0.001 x1=0.0 x0=0.0 c1=0.0 c0=0.0  switch = T length=0.00100
New "Line.CMT_29CF_17" phases=3 bus1="182321.1.2.3" bus2="29CF17.1.2.3" r1=0.001 r0=0.001 x1=0.0 x0=0.0 c1=0.0 c0=0.0  switch = T length=0.00100
New "Line.CMT_23CF_1469" phases=3 bus1="383131.1.2.3" bus2="23CF1469.1.2.3" r1=0.001 r0=0.001 x1=0.0 x0=0.0 c1=0.0 c0=0.0  switch = T length=0.00100
New "Line.CMT_29CF_11" phases=1 bus1="383091.2" bus2="29CF11.2" r1=0.001 r0=0.001 x1=0.0 x0=0.0 c1=0.0 c0=0.0  switch = T length=0.00100
New "Line.CMT_23CF_726" phases=1 bus1="377241.2" bus2="23CF726.2" r1=0.001 r0=0.001 x1=0.0 x0=0.0 c1=0.0 c0=0.0  switch = T length=0.00100
New "Line.CMT_23CF_727" phases=1 bus1="377161.3" bus2="23CF727.3" r1=0.001 r0=0.001 x1=0.0 x0=0.0 c1=0.0 c0=0.0  switch = T length=0.00100
New "Line.CMT_23FR_50" phases=3 bus1="362651.1.2.3" bus2="23FR50.1.2.3" r1=0.001 r0=0.001 x1=0.0 x0=0.0 c1=0.0 c0=0.0  switch = T length=0.00100
New "Line.CMT_23CF_143" phases=1 bus1="361201.2" bus2="23CF143.2" r1=0.001 r0=0.001 x1=0.0 x0=0.0 c1=0.0 c0=0.0  switch = T length=0.00100
New "Line.CMT_2CF_166" phases=3 bus1="361161.1.2.3" bus2="2CF166.1.2.3" r1=0.001 r0=0.001 x1=0.0 x0=0.0 c1=0.0 c0=0.0  switch = T length=0.00100
New "Line.CMT_18CF_650" phases=1 bus1="358861.2" bus2="18CF650.2" r1=0.001 r0=0.001 x1=0.0 x0=0.0 c1=0.0 c0=0.0  switch = T length=0.00100
New "Line.CMT_5CF_991" phases=3 bus1="757401.1.2.3" bus2="5CF991.1.2.3" r1=0.001 r0=0.001 x1=0.0 x0=0.0 c1=0.0 c0=0.0  switch = T length=0.00100
New "Line.CMT_23CF_832" phases=1 bus1="522421.2" bus2="23CF832.2" r1=0.001 r0=0.001 x1=0.0 x0=0.0 c1=0.0 c0=0.0  switch = T length=0.00100
New "Line.CMT_23CF_1134" phases=3 bus1="820771.1.2.3" bus2="23CF1134.1.2.3" r1=0.001 r0=0.001 x1=0.0 x0=0.0 c1=0.0 c0=0.0  switch = T length=0.00100
New "Line.CMT_23CF_715" phases=3 bus1="400691.1.2.3" bus2="23CF715.1.2.3" r1=0.001 r0=0.001 x1=0.0 x0=0.0 c1=0.0 c0=0.0  switch = T length=0.00100
New "Line.CMT_23CF_1022" phases=3 bus1="605661.1.2.3" bus2="23CF1022.1.2.3" r1=0.001 r0=0.001 x1=0.0 x0=0.0 c1=0.0 c0=0.0  switch = T length=0.00100
New "Line.CMT_29CS_1000" phases=3 bus1="77631.1.2.3" bus2="29CS1000.1.2.3" r1=0.001 r0=0.001 x1=0.0 x0=0.0 c1=0.0 c0=0.0  switch = T length=0.00100
New "Line.CMT_18CF_941" phases=1 bus1="581831.3" bus2="18CF941.3" r1=0.001 r0=0.001 x1=0.0 x0=0.0 c1=0.0 c0=0.0  switch = T length=0.00100
New "Line.CMT_2CF_967" phases=3 bus1="577141.1.2.3" bus2="2CF967.1.2.3" r1=0.001 r0=0.001 x1=0.0 x0=0.0 c1=0.0 c0=0.0  switch = T length=0.00100
New "Line.CMT_18CF_1454" phases=3 bus1="544771.1.2.3" bus2="18CF1454.1.2.3" r1=0.001 r0=0.001 x1=0.0 x0=0.0 c1=0.0 c0=0.0  switch = T length=0.00100
New "Line.CMT_18CS_611" phases=3 bus1="827501.1.2.3" bus2="18CS611.1.2.3" r1=0.001 r0=0.001 x1=0.0 x0=0.0 c1=0.0 c0=0.0  switch = T length=0.00100
New "Line.CMT_23CS_1157" phases=3 bus1="624541.1.2.3" bus2="23CS1157.1.2.3" r1=0.001 r0=0.001 x1=0.0 x0=0.0 c1=0.0 c0=0.0  switch = T length=0.00100
New "Line.CMT_29CF_4" phases=1 bus1="645121.3" bus2="29CF4.3" r1=0.001 r0=0.001 x1=0.0 x0=0.0 c1=0.0 c0=0.0  switch = T length=0.00100
New "Line.CMT_5CF_1057" phases=1 bus1="642911.2" bus2="5CF1057.2" r1=0.001 r0=0.001 x1=0.0 x0=0.0 c1=0.0 c0=0.0  switch = T length=0.00100
New "Line.CMT_5CF_1060" phases=1 bus1="642891.3" bus2="5CF1060.3" r1=0.001 r0=0.001 x1=0.0 x0=0.0 c1=0.0 c0=0.0  switch = T length=0.00100
New "Line.CMT_5CF_1083" phases=3 bus1="639911.1.2.3" bus2="5CF1083.1.2.3" r1=0.001 r0=0.001 x1=0.0 x0=0.0 c1=0.0 c0=0.0  switch = T length=0.00100
New "Line.CMT_23CF_1221" phases=3 bus1="612691.1.2.3" bus2="23CF1221.1.2.3" r1=0.001 r0=0.001 x1=0.0 x0=0.0 c1=0.0 c0=0.0  switch = T length=0.00100
New "Line.CMT_5CS_811" phases=1 bus1="612221.2" bus2="5CS811.2" r1=0.001 r0=0.001 x1=0.0 x0=0.0 c1=0.0 c0=0.0  switch = T length=0.00100
New "Line.CMT_5CF_1255" phases=1 bus1="135211.3" bus2="5CF1255.3" r1=0.001 r0=0.001 x1=0.0 x0=0.0 c1=0.0 c0=0.0  switch = T length=0.00100
New "Line.CMT_18CF_630" phases=2 bus1="323591.1.2" bus2="18CF630.1.2" r1=0.001 r0=0.001 x1=0.0 x0=0.0 c1=0.0 c0=0.0  switch = T length=0.00100
New "Line.CMT_23CS_35" phases=3 bus1="322941.1.2.3" bus2="23CS35.1.2.3" r1=0.001 r0=0.001 x1=0.0 x0=0.0 c1=0.0 c0=0.0  switch = T length=0.00100
New "Line.CMT_23CF_1222" phases=3 bus1="671741.1.2.3" bus2="23CF1222.1.2.3" r1=0.001 r0=0.001 x1=0.0 x0=0.0 c1=0.0 c0=0.0  switch = T length=0.00100
New "Line.CMT_23CF_1220" phases=1 bus1="671091.2" bus2="23CF1220.2" r1=0.001 r0=0.001 x1=0.0 x0=0.0 c1=0.0 c0=0.0  switch = T length=0.00100
New "Line.CMT_2CS_1156" phases=3 bus1="14291.1.2.3" bus2="2CS1156.1.2.3" r1=0.001 r0=0.001 x1=0.0 x0=0.0 c1=0.0 c0=0.0  switch = T length=0.00100
New "Line.CMT_23FR_39" phases=3 bus1="258811.1.2.3" bus2="23FR39.1.2.3" r1=0.001 r0=0.001 x1=0.0 x0=0.0 c1=0.0 c0=0.0  switch = T length=0.00100
New "Line.CMT_18CS_940" phases=3 bus1="498221.1.2.3" bus2="18CS940.1.2.3" r1=0.001 r0=0.001 x1=0.0 x0=0.0 c1=0.0 c0=0.0  switch = T length=0.00100
New "Line.CMT_17CF_1195" phases=1 bus1="666691.1" bus2="17CF1195.1" r1=0.001 r0=0.001 x1=0.0 x0=0.0 c1=0.0 c0=0.0  switch = T length=0.00100
New "Line.CMT_5CF_1131" phases=3 bus1="663491.1.2.3" bus2="5CF1131.1.2.3" r1=0.001 r0=0.001 x1=0.0 x0=0.0 c1=0.0 c0=0.0  switch = T length=0.00100
New "Line.CMT_17CF_1141" phases=1 bus1="662281.2" bus2="17CF1141.2" r1=0.001 r0=0.001 x1=0.0 x0=0.0 c1=0.0 c0=0.0  switch = T length=0.00100
New "Line.CMT_5CF_1210" phases=3 bus1="715861.1.2.3" bus2="5CF1210.1.2.3" r1=0.001 r0=0.001 x1=0.0 x0=0.0 c1=0.0 c0=0.0  switch = T length=0.00100
New "Line.CMT_18CF_1124" phases=1 bus1="277941.1" bus2="18CF1124.1" r1=0.001 r0=0.001 x1=0.0 x0=0.0 c1=0.0 c0=0.0  switch = T length=0.00100
New "Line.CMT_18CF_76" phases=3 bus1="277931.1.2.3" bus2="18CF76.1.2.3" r1=0.001 r0=0.001 x1=0.0 x0=0.0 c1=0.0 c0=0.0  switch = T length=0.00100
New "Line.CMT_23CF_662" phases=3 bus1="267741.1.2.3" bus2="23CF662.1.2.3" r1=0.001 r0=0.001 x1=0.0 x0=0.0 c1=0.0 c0=0.0  switch = T length=0.00100
New "Line.CMT_15CF_13" phases=1 bus1="267071.3" bus2="15CF13.3" r1=0.001 r0=0.001 x1=0.0 x0=0.0 c1=0.0 c0=0.0  switch = T length=0.00100
New "Line.CMT_29FR_10" phases=3 bus1="266991.1.2.3" bus2="29FR10.1.2.3" r1=0.001 r0=0.001 x1=0.0 x0=0.0 c1=0.0 c0=0.0  switch = T length=0.00100
New "Line.CMT_23CF_1313" phases=3 bus1="731611.1.2.3" bus2="23CF1313.1.2.3" r1=0.001 r0=0.001 x1=0.0 x0=0.0 c1=0.0 c0=0.0  switch = T length=0.00100
New "Line.CMT_5CS_1297" phases=3 bus1="731001.1.2.3" bus2="5CS1297.1.2.3" r1=0.001 r0=0.001 x1=0.0 x0=0.0 c1=0.0 c0=0.0  switch = T length=0.00100
!New "Line.CMT_29BP_2509246" phases=3 bus1="730201.1.2.3" bus2="29BP2509246.1.2.3" r1=0.001 r0=0.001 x1=0.0 x0=0.0 c1=0.0 c0=0.0  switch = T length=0.00100
 !Chave MT em estado ABERTO!
New "Line.CMT_23CF_1234" phases=3 bus1="727861.1.2.3" bus2="23CF1234.1.2.3" r1=0.001 r0=0.001 x1=0.0 x0=0.0 c1=0.0 c0=0.0  switch = T length=0.00100
New "Line.CMT_29CF_1278" phases=3 bus1="727311.1.2.3" bus2="29CF1278.1.2.3" r1=0.001 r0=0.001 x1=0.0 x0=0.0 c1=0.0 c0=0.0  switch = T length=0.00100
New "Line.CMT_15CF_430" phases=1 bus1="685541.3" bus2="15CF430.3" r1=0.001 r0=0.001 x1=0.0 x0=0.0 c1=0.0 c0=0.0  switch = T length=0.00100
New "Line.CMT_23CF_1398" phases=3 bus1="685101.1.2.3" bus2="23CF1398.1.2.3" r1=0.001 r0=0.001 x1=0.0 x0=0.0 c1=0.0 c0=0.0  switch = T length=0.00100
New "Line.CMT_29CO_1259" phases=3 bus1="551981.1.2.3" bus2="29CO1259.1.2.3" r1=0.001 r0=0.001 x1=0.0 x0=0.0 c1=0.0 c0=0.0  switch = T length=0.00100
New "Line.CMT_23CF_1288" phases=3 bus1="739231.1.2.3" bus2="23CF1288.1.2.3" r1=0.001 r0=0.001 x1=0.0 x0=0.0 c1=0.0 c0=0.0  switch = T length=0.00100
New "Line.CMT_2CF_1287" phases=3 bus1="739041.1.2.3" bus2="2CF1287.1.2.3" r1=0.001 r0=0.001 x1=0.0 x0=0.0 c1=0.0 c0=0.0  switch = T length=0.00100
New "Line.CMT_17CF_1360" phases=1 bus1="680921.1" bus2="17CF1360.1" r1=0.001 r0=0.001 x1=0.0 x0=0.0 c1=0.0 c0=0.0  switch = T length=0.00100
New "Line.CMT_18CF_1332" phases=3 bus1="680281.1.2.3" bus2="18CF1332.1.2.3" r1=0.001 r0=0.001 x1=0.0 x0=0.0 c1=0.0 c0=0.0  switch = T length=0.00100
New "Line.CMT_18CF_1470" phases=1 bus1="678221.1" bus2="18CF1470.1" r1=0.001 r0=0.001 x1=0.0 x0=0.0 c1=0.0 c0=0.0  switch = T length=0.00100
New "Line.CMT_5CF_1421" phases=3 bus1="742441.1.2.3" bus2="5CF1421.1.2.3" r1=0.001 r0=0.001 x1=0.0 x0=0.0 c1=0.0 c0=0.0  switch = T length=0.00100
New "Line.CMT_18CF_34" phases=1 bus1="741161.3" bus2="18CF34.3" r1=0.001 r0=0.001 x1=0.0 x0=0.0 c1=0.0 c0=0.0  switch = T length=0.00100
New "Line.CMT_29CF_19" phases=1 bus1="183271.1" bus2="29CF19.1" r1=0.001 r0=0.001 x1=0.0 x0=0.0 c1=0.0 c0=0.0  switch = T length=0.00100
New "Line.CMT_18CS_79" phases=3 bus1="183072.1.2.3" bus2="18CS79.1.2.3" r1=0.001 r0=0.001 x1=0.0 x0=0.0 c1=0.0 c0=0.0  switch = T length=0.00100
New "Line.CMT_17CF_1431" phases=3 bus1="240271.1.2.3" bus2="17CF1431.1.2.3" r1=0.001 r0=0.001 x1=0.0 x0=0.0 c1=0.0 c0=0.0  switch = T length=0.00100
New "Line.CMT_18CS_904" phases=1 bus1="281911.3" bus2="18CS904.3" r1=0.001 r0=0.001 x1=0.0 x0=0.0 c1=0.0 c0=0.0  switch = T length=0.00100
New "Line.CMT_23RL_425" phases=3 bus1="286902.1.2.3" bus2="23RL425.1.2.3" r1=0.001 r0=0.001 x1=0.0 x0=0.0 c1=0.0 c0=0.0  switch = T length=0.00100
New "Line.CMT_23CF_44" phases=3 bus1="271451.1.2.3" bus2="23CF44.1.2.3" r1=0.001 r0=0.001 x1=0.0 x0=0.0 c1=0.0 c0=0.0  switch = T length=0.00100
New "Line.CMT_23CS_1376" phases=3 bus1="743071.1.2.3" bus2="23CS1376.1.2.3" r1=0.001 r0=0.001 x1=0.0 x0=0.0 c1=0.0 c0=0.0  switch = T length=0.00100
New "Line.CMT_15CF_1400" phases=3 bus1="685561.1.2.3" bus2="15CF1400.1.2.3" r1=0.001 r0=0.001 x1=0.0 x0=0.0 c1=0.0 c0=0.0  switch = T length=0.00100
New "Line.CMT_29CF_8" phases=3 bus1="277911.1.2.3" bus2="29CF8.1.2.3" r1=0.001 r0=0.001 x1=0.0 x0=0.0 c1=0.0 c0=0.0  switch = T length=0.00100
New "Line.CMT_17CF_604" phases=3 bus1="663791.1.2.3" bus2="17CF604.1.2.3" r1=0.001 r0=0.001 x1=0.0 x0=0.0 c1=0.0 c0=0.0  switch = T length=0.00100
New "Line.CMT_18CF_954" phases=3 bus1="631461.1.2.3" bus2="18CF954.1.2.3" r1=0.001 r0=0.001 x1=0.0 x0=0.0 c1=0.0 c0=0.0  switch = T length=0.00100
New "Line.CMT_18CS_123" phases=3 bus1="196501.1.2.3" bus2="18CS123.1.2.3" r1=0.001 r0=0.001 x1=0.0 x0=0.0 c1=0.0 c0=0.0  switch = T length=0.00100
New "Line.CMT_17CF_1138" phases=1 bus1="655381.2" bus2="17CF1138.2" r1=0.001 r0=0.001 x1=0.0 x0=0.0 c1=0.0 c0=0.0  switch = T length=0.00100
New "Line.CMT_23CF_820" phases=3 bus1="477391.1.2.3" bus2="23CF820.1.2.3" r1=0.001 r0=0.001 x1=0.0 x0=0.0 c1=0.0 c0=0.0  switch = T length=0.00100
New "Line.CMT_5CF_1132" phases=3 bus1="414191.1.2.3" bus2="5CF1132.1.2.3" r1=0.001 r0=0.001 x1=0.0 x0=0.0 c1=0.0 c0=0.0  switch = T length=0.00100
New "Line.CMT_18CF_344" phases=3 bus1="634871.1.2.3" bus2="18CF344.1.2.3" r1=0.001 r0=0.001 x1=0.0 x0=0.0 c1=0.0 c0=0.0  switch = T length=0.00100
New "Line.CMT_23CF_1099" phases=3 bus1="314601.1.2.3" bus2="23CF1099.1.2.3" r1=0.001 r0=0.001 x1=0.0 x0=0.0 c1=0.0 c0=0.0  switch = T length=0.00100
New "Line.CMT_29CS_6" phases=3 bus1="623471.1.2.3" bus2="29CS6.1.2.3" r1=0.001 r0=0.001 x1=0.0 x0=0.0 c1=0.0 c0=0.0  switch = T length=0.00100
New "Line.CMT_18CF_65" phases=3 bus1="643221.1.2.3" bus2="18CF65.1.2.3" r1=0.001 r0=0.001 x1=0.0 x0=0.0 c1=0.0 c0=0.0  switch = T length=0.00100
New "Line.CMT_23CF_29" phases=3 bus1="361021.1.2.3" bus2="23CF29.1.2.3" r1=0.001 r0=0.001 x1=0.0 x0=0.0 c1=0.0 c0=0.0  switch = T length=0.00100
New "Line.CMT_18CF_1555" phases=1 bus1="748781.3" bus2="18CF1555.3" r1=0.001 r0=0.001 x1=0.0 x0=0.0 c1=0.0 c0=0.0  switch = T length=0.00100
New "Line.CMT_17CF_1533" phases=3 bus1="750281.1.2.3" bus2="17CF1533.1.2.3" r1=0.001 r0=0.001 x1=0.0 x0=0.0 c1=0.0 c0=0.0  switch = T length=0.00100
New "Line.CMT_2CF_1433" phases=1 bus1="691201.1" bus2="2CF1433.1" r1=0.001 r0=0.001 x1=0.0 x0=0.0 c1=0.0 c0=0.0  switch = T length=0.00100
New "Line.CMT_23CS_89" phases=3 bus1="271881.1.2.3" bus2="23CS89.1.2.3" r1=0.001 r0=0.001 x1=0.0 x0=0.0 c1=0.0 c0=0.0  switch = T length=0.00100
New "Line.CMT_29CF_1589" phases=3 bus1="753621.1.2.3" bus2="29CF1589.1.2.3" r1=0.001 r0=0.001 x1=0.0 x0=0.0 c1=0.0 c0=0.0  switch = T length=0.00100
New "Line.CMT_29CF_1550" phases=3 bus1="753611.1.2.3" bus2="29CF1550.1.2.3" r1=0.001 r0=0.001 x1=0.0 x0=0.0 c1=0.0 c0=0.0  switch = T length=0.00100
New "Line.CMT_5CF_1373" phases=1 bus1="105251.3" bus2="5CF1373.3" r1=0.001 r0=0.001 x1=0.0 x0=0.0 c1=0.0 c0=0.0  switch = T length=0.00100
New "Line.CMT_5FR_171" phases=3 bus1="561001.1.2.3" bus2="5FR171.1.2.3" r1=0.001 r0=0.001 x1=0.0 x0=0.0 c1=0.0 c0=0.0  switch = T length=0.00100
New "Line.CMT_23CS_433" phases=3 bus1="759681.1.2.3" bus2="23CS433.1.2.3" r1=0.001 r0=0.001 x1=0.0 x0=0.0 c1=0.0 c0=0.0  switch = T length=0.00100
New "Line.CMT_17CF_1499" phases=3 bus1="686301.1.2.3" bus2="17CF1499.1.2.3" r1=0.001 r0=0.001 x1=0.0 x0=0.0 c1=0.0 c0=0.0  switch = T length=0.00100
New "Line.CMT_23CS_41" phases=3 bus1="266071.1.2.3" bus2="23CS41.1.2.3" r1=0.001 r0=0.001 x1=0.0 x0=0.0 c1=0.0 c0=0.0  switch = T length=0.00100
New "Line.CMT_18CF_86" phases=3 bus1="239351.1.2.3" bus2="18CF86.1.2.3" r1=0.001 r0=0.001 x1=0.0 x0=0.0 c1=0.0 c0=0.0  switch = T length=0.00100
New "Line.CMT_18RL_1578" phases=3 bus1="821621.1.2.3" bus2="18RL1578.1.2.3" r1=0.001 r0=0.001 x1=0.0 x0=0.0 c1=0.0 c0=0.0  switch = T length=0.00100
New "Line.CMT_18RL_1577" phases=3 bus1="361592.1.2.3" bus2="18RL1577.1.2.3" r1=0.001 r0=0.001 x1=0.0 x0=0.0 c1=0.0 c0=0.0  switch = T length=0.00100
New "Line.CMT_18FS_197" phases=1 bus1="253551.2" bus2="18FS197.2" r1=0.001 r0=0.001 x1=0.0 x0=0.0 c1=0.0 c0=0.0  switch = T length=0.00100
New "Line.CMT_23FR_54" phases=3 bus1="330801.1.2.3" bus2="23FR54.1.2.3" r1=0.001 r0=0.001 x1=0.0 x0=0.0 c1=0.0 c0=0.0  switch = T length=0.00100
New "Line.CMT_29CF_1336" phases=3 bus1="745671.1.2.3" bus2="29CF1336.1.2.3" r1=0.001 r0=0.001 x1=0.0 x0=0.0 c1=0.0 c0=0.0  switch = T length=0.00100
New "Line.CMT_18CF_1402" phases=3 bus1="674301.1.2.3" bus2="18CF1402.1.2.3" r1=0.001 r0=0.001 x1=0.0 x0=0.0 c1=0.0 c0=0.0  switch = T length=0.00100
New "Line.CMT_23FR_80" phases=1 bus1="655081.3" bus2="23FR80.3" r1=0.001 r0=0.001 x1=0.0 x0=0.0 c1=0.0 c0=0.0  switch = T length=0.00100
New "Line.CMT_18CF_109" phases=1 bus1="286281.3" bus2="18CF109.3" r1=0.001 r0=0.001 x1=0.0 x0=0.0 c1=0.0 c0=0.0  switch = T length=0.00100
New "Line.CMT_17CF_1367" phases=3 bus1="655421.1.2.3" bus2="17CF1367.1.2.3" r1=0.001 r0=0.001 x1=0.0 x0=0.0 c1=0.0 c0=0.0  switch = T length=0.00100
New "Line.CMT_17CF_1726" phases=1 bus1="774461.3" bus2="17CF1726.3" r1=0.001 r0=0.001 x1=0.0 x0=0.0 c1=0.0 c0=0.0  switch = T length=0.00100

New "Line.CMT_29FR_7" phases=3 bus1="772891.1.2.3" bus2="29FR7.1.2.3" r1=0.001 r0=0.001 x1=0.0 x0=0.0 c1=0.0 c0=0.0  switch = T length=0.00100
New "Line.CMT_5FR_56" phases=1 bus1="329971.3" bus2="5FR56.3" r1=0.001 r0=0.001 x1=0.0 x0=0.0 c1=0.0 c0=0.0  switch = T length=0.00100
New "Line.CMT_18FR_1095" phases=1 bus1="637791.2" bus2="18FR1095.2" r1=0.001 r0=0.001 x1=0.0 x0=0.0 c1=0.0 c0=0.0  switch = T length=0.00100
New "Line.CMT_29CF_776" phases=3 bus1="645181.1.2.3" bus2="29CF776.1.2.3" r1=0.001 r0=0.001 x1=0.0 x0=0.0 c1=0.0 c0=0.0  switch = T length=0.00100
New "Line.CMT_5CF_1689" phases=3 bus1="778381.1.2.3" bus2="5CF1689.1.2.3" r1=0.001 r0=0.001 x1=0.0 x0=0.0 c1=0.0 c0=0.0  switch = T length=0.00100
New "Line.CMT_18CF_386" phases=1 bus1="358981.2" bus2="18CF386.2" r1=0.001 r0=0.001 x1=0.0 x0=0.0 c1=0.0 c0=0.0  switch = T length=0.00100
New "Line.CMT_18FR_77" phases=3 bus1="231591.1.2.3" bus2="18FR77.1.2.3" r1=0.001 r0=0.001 x1=0.0 x0=0.0 c1=0.0 c0=0.0  switch = T length=0.00100
New "Line.CMT_23FR_124" phases=3 bus1="267711.1.2.3" bus2="23FR124.1.2.3" r1=0.001 r0=0.001 x1=0.0 x0=0.0 c1=0.0 c0=0.0  switch = T length=0.00100
!New "Line.CMT_23RT1" phases=3 bus1="809191.1.2.3" bus2="RT755621.1.2.3" r1=0.001 r0=0.001 x1=0.0 x0=0.0 c1=0.0 c0=0.0  switch = T length=0.00100
 !Chave MT em estado ABERTO!
!New "Line.CMT_23RT9708" phases=3 bus1="809151.1.2.3" bus2="RT759661.1.2.3" r1=0.001 r0=0.001 x1=0.0 x0=0.0 c1=0.0 c0=0.0  switch = T length=0.00100
 !Chave MT em estado ABERTO!
!New "Line.CMT_18RT9715" phases=3 bus1="790502.1.2.3" bus2="RT88701.1.2.3" r1=0.001 r0=0.001 x1=0.0 x0=0.0 c1=0.0 c0=0.0  switch = T length=0.00100
 !Chave MT em estado ABERTO!



!New "Line.CMT_23BC8001" phases=3 bus1="293301.1.2.3" bus2="BC293301.1.2.3" r1=0.001 r0=0.001 x1=0.0 x0=0.0 c1=0.0 c0=0.0  switch = T length=0.00100
 !Chave MT em estado ABERTO!
!New "Line.CMT_23BC8016" phases=3 bus1="190281.1.2.3" bus2="BC190281.1.2.3" r1=0.001 r0=0.001 x1=0.0 x0=0.0 c1=0.0 c0=0.0  switch = T length=0.00100
 !Chave MT em estado ABERTO!
